/*--------------------------------*- C++ -*----------------------------------*\
  =========                 |
  \\      /  F ield         | OpenFOAM: The Open Source CFD Toolbox
   \\    /   O peration     | Website:  https://openfoam.org
    \\  /    A nd           | Version:  7
     \\/     M anipulation  |
\*---------------------------------------------------------------------------*/
FoamFile
{
    version     2.0;
    format      ascii;
    class       polyBoundaryMesh;
    location    "constant/polyMesh";
    object      boundary;
}
// * * * * * * * * * * * * * * * * * * * * * * * * * * * * * * * * * * * * * //

6
(
    upperWall
    {
        type            wall;
        inGroups        List<word> 1(wall);
        nFaces          2000;
        startFace       45988;
    }
    lowerWall
    {
        type            wall;
        inGroups        List<word> 1(wall);
        nFaces          400;
        startFace       47988;
    }
    heatedWall
    {
        type            wall;
        inGroups        List<word> 1(wall);
        nFaces          1600;
        startFace       48388;
    }
    inlet
    {
        type            patch;
        nFaces          12;
        startFace       49988;
    }
    outlet
    {
        type            patch;
        nFaces          12;
        startFace       50000;
    }
    frontAndBack
    {
        type            empty;
        inGroups        List<word> 1(empty);
        nFaces          48000;
        startFace       50012;
    }
)

// ************************************************************************* //
