/*--------------------------------*- C++ -*----------------------------------*\
  =========                 |
  \\      /  F ield         | OpenFOAM: The Open Source CFD Toolbox
   \\    /   O peration     | Website:  https://openfoam.org
    \\  /    A nd           | Version:  7
     \\/     M anipulation  |
\*---------------------------------------------------------------------------*/
FoamFile
{
    version     2.0;
    format      ascii;
    class       polyBoundaryMesh;
    location    "constant/polyMesh";
    object      boundary;
}
// * * * * * * * * * * * * * * * * * * * * * * * * * * * * * * * * * * * * * //

6
(
    upperWall
    {
        type            wall;
        inGroups        List<word> 1(wall);
        nFaces          100;
        startFace       2288;
    }
    lowerWall
    {
        type            wall;
        inGroups        List<word> 1(wall);
        nFaces          20;
        startFace       2388;
    }
    heatedWall
    {
        type            wall;
        inGroups        List<word> 1(wall);
        nFaces          80;
        startFace       2408;
    }
    inlet
    {
        type            patch;
        nFaces          12;
        startFace       2488;
    }
    outlet
    {
        type            patch;
        nFaces          12;
        startFace       2500;
    }
    frontAndBack
    {
        type            empty;
        inGroups        List<word> 1(empty);
        nFaces          2400;
        startFace       2512;
    }
)

// ************************************************************************* //
